*Heading
** Job name: Job-2 Model name: Model-1
** Generated by: Abaqus/CAE 6.13-3
*Preprint, echo=NO, model=YES, history=NO, contact=NO
** ----------------------------------------------------------------
** 
** PART INSTANCE: truncated_octahedron_reference_s-1
** 
*Node
      1,         62.5,  -29.4627819,  -104.166664
      2,   41.6666679,           0.,        -125.
      3,         62.5,   29.4627819,  -104.166664
      4,   83.3333359,           0.,  -83.3333359
      5,           0.,  -58.9255638,  -83.3333359
      6,           0.,           0.,        -125.
      7,           0.,   58.9255638,  -83.3333359
      8,  -1.08991355e-06,  -5.44956777e-07,  1.08991355e-06
      9,   83.3333359,   58.9255638,  -83.3333359
     10,   104.166664,   29.4627819,        -62.5
     11,         62.5,   88.3883514,        -62.5
     12,   83.3333359,   58.9255638,           0.
     13,         125.,           0.,  -41.6666679
     14,   104.166664,  -29.4627819,        -62.5
     15,         125.,           0.,  1.05823474e-08
     16,   83.3333359,  -58.9255638,           0.
     17,   83.3333359,  -58.9255638,  -83.3333359
     18,         62.5,  -88.3883514,        -62.5
     19,  -41.6666679,           0.,        -125.
     20,        -62.5,   29.4627819,  -104.166664
** ... 55 like lines cut
*Element, type=SC8R
 1,  5,  6,  7,  8,  1,  2,  3,  4
 2,  7, 11, 12,  8,  3,  9, 10,  4
 3, 12, 15, 16,  8, 10, 13, 14,  4
 4, 16, 18,  5,  8, 14, 17,  1,  4
 5,  5, 21, 22,  8,  6, 19, 20,  7
 6, 22, 25, 26,  8, 20, 23, 24,  7
 7, 26, 29, 30,  8, 24, 27, 28,  7
 8, 30, 32, 12,  8, 28, 31, 11,  7
 9,  5, 35, 36,  8, 21, 33, 34, 22
10, 36, 38, 26,  8, 34, 37, 25, 22
11, 16, 41, 42,  8, 18, 39, 40,  5
12, 42, 44, 36,  8, 40, 43, 35,  5
13, 12, 47, 48,  8, 15, 45, 46, 16
14, 48, 51, 52,  8, 46, 49, 50, 16
15, 52, 54, 42,  8, 50, 53, 41, 16
16, 12, 57, 58,  8, 47, 55, 56, 48
17, 58, 60, 52,  8, 56, 59, 51, 48
18, 58, 63, 64,  8, 60, 61, 62, 52
19, 64, 67, 36,  8, 62, 65, 66, 52
20, 36, 44, 42,  8, 66, 68, 54, 52
** ... 4 like lines cut
*System
** 
** MATERIALS
** 
*Material, name=Material-1
*Density
0.,
*Elastic
5., 0.45
** ----------------------------------------------------------------
** 
** STEP: Step-1
** 
*Step, name=Step-1, nlgeom=NO
*Static
1., 1., 1e-05, 1.
** 
** OUTPUT REQUESTS
** 
*Restart, write, frequency=0
** 
** FIELD OUTPUT: F-Output-1
** 
*Output, field, variable=PRESELECT
** 
** HISTORY OUTPUT: H-Output-1
** 
*Output, history, variable=PRESELECT
*End Step
